#======================================================================

# CRYSTAL DATA

#----------------------------------------------------------------------

data_VESTA_phase_1


_chemical_name_common                  'XCrySDen XSF file'
_cell_length_a                         2.84290
_cell_length_b                         2.84290
_cell_length_c                         74.89072
_cell_angle_alpha                      73.45879
_cell_angle_beta                       73.45879
_cell_angle_gamma                      59.99997
_space_group_name_H-M_alt              'P 1'
_space_group_IT_number                 1

loop_
_space_group_symop_operation_xyz
   'x, y, z'

loop_
   _atom_site_label
   _atom_site_occupancy
   _atom_site_fract_x
   _atom_site_fract_y
   _atom_site_fract_z
   _atom_site_adp_type
   _atom_site_B_iso_or_equiv
   _atom_site_type_symbol
   Co1        1.0     0.499999      0.500001      0.023959     Biso  1.000000 Co
   Co2        1.0     0.500002      0.499998      0.090625     Biso  1.000000 Co
   Co3        1.0     0.500003      0.499999      0.157292     Biso  1.000000 Co
   Co4        1.0     0.499999      0.499999      0.223959     Biso  1.000000 Co
   Co5        1.0     0.500003      0.499997      0.290625     Biso  1.000000 Co
   Co6        1.0     0.500003      0.499997      0.357292     Biso  1.000000 Co
   Co7        1.0     0.500000      0.499997      0.423959     Biso  1.000000 Co
   Co8        1.0     0.500003      0.499995      0.490625     Biso  1.000000 Co
   Co9        1.0     0.500000      0.500004      0.557292     Biso  1.000000 Co
   Co10       1.0     0.499997      0.500004      0.623959     Biso  1.000000 Co
   Li1        1.0     0.000002      0.000000      0.057292     Biso  1.000000 Li
   Li2        1.0     0.999999      0.000000      0.123959     Biso  1.000000 Li
   Li3        1.0     0.000002      0.999998      0.190625     Biso  1.000000 Li
   Li4        1.0     0.000002      0.999997      0.257292     Biso  1.000000 Li
   Li5        1.0     0.000000      0.999998      0.323959     Biso  1.000000 Li
   Li6        1.0     0.000002      0.999995      0.390625     Biso  1.000000 Li
   Li7        1.0     0.000003      0.999996      0.457292     Biso  1.000000 Li
   Li8        1.0     0.999997      0.000005      0.523959     Biso  1.000000 Li
   Li9        1.0     0.000000      0.000002      0.590625     Biso  1.000000 Li
   O1         1.0     0.760413      0.760413      0.038543     Biso  1.000000 O
   O2         1.0     0.239584      0.239589      0.009375     Biso  1.000000 O
   O3         1.0     0.760414      0.760414      0.105209     Biso  1.000000 O
   O4         1.0     0.239587      0.239586      0.076041     Biso  1.000000 O
   O5         1.0     0.760411      0.760415      0.171876     Biso  1.000000 O
   O6         1.0     0.239588      0.239586      0.142708     Biso  1.000000 O
   O7         1.0     0.760414      0.760411      0.238543     Biso  1.000000 O
   O8         1.0     0.239585      0.239587      0.209375     Biso  1.000000 O
   O9         1.0     0.760414      0.760413      0.305209     Biso  1.000000 O
   O10        1.0     0.239588      0.239584      0.276041     Biso  1.000000 O
   O11        1.0     0.760412      0.760413      0.371876     Biso  1.000000 O
   O12        1.0     0.239589      0.239585      0.342708     Biso  1.000000 O
   O13        1.0     0.760415      0.760410      0.438543     Biso  1.000000 O
   O14        1.0     0.239586      0.239585      0.409375     Biso  1.000000 O
   O15        1.0     0.760415      0.760411      0.505209     Biso  1.000000 O
   O16        1.0     0.239589      0.239583      0.476041     Biso  1.000000 O
   O17        1.0     0.760409      0.760420      0.571876     Biso  1.000000 O
   O18        1.0     0.239586      0.239592      0.542708     Biso  1.000000 O
   O19        1.0     0.760411      0.760416      0.638543     Biso  1.000000 O
   O20        1.0     0.239583      0.239593      0.609375     Biso  1.000000 O
